Version 4
SHEET 1 880 680
WIRE -128 -80 -320 -80
WIRE 144 -80 -128 -80
WIRE -320 -16 -320 -80
WIRE -128 -16 -128 -80
WIRE -128 -16 -144 -16
WIRE 144 -16 144 -80
WIRE 144 -16 112 -16
WIRE -64 16 -144 16
WIRE 176 16 112 16
WIRE 208 16 176 16
WIRE 208 32 208 16
WIRE -128 48 -144 48
WIRE 128 48 112 48
WIRE -320 64 -320 48
WIRE -320 112 -320 64
WIRE -128 112 -128 48
WIRE -128 112 -320 112
WIRE -80 112 -128 112
WIRE 128 112 128 48
WIRE 128 112 -80 112
WIRE -80 144 -80 112
FLAG -80 144 0
FLAG 176 16 vout
SYMBOL Hysteresistoscillator3 -192 16 R0
SYMATTR InstName X1
SYMBOL CurrentSteeringRampGnerator2 16 16 R0
SYMATTR InstName X2
SYMBOL voltage -320 -32 R0
SYMATTR InstName V1
SYMATTR Value PWL(0 0 1u 2)
TEXT -352 168 Left 2 !.tran 0 10u 0 1e-10
