Version 4.1
SHEET 1 1044 680
WIRE 112 64 -160 64
WIRE 336 64 112 64
WIRE 576 64 336 64
WIRE 912 64 576 64
WIRE 368 80 -112 80
WIRE -160 128 -160 64
WIRE 368 128 368 80
WIRE 368 128 320 128
WIRE 112 144 112 64
WIRE 112 144 96 144
WIRE 912 144 912 64
WIRE 912 144 880 144
WIRE 336 160 336 64
WIRE 336 160 320 160
WIRE -112 176 -112 80
WIRE -96 176 -112 176
WIRE 128 176 96 176
WIRE 144 176 128 176
WIRE 624 176 544 176
WIRE 704 176 624 176
WIRE 944 176 880 176
WIRE 976 176 944 176
WIRE 1008 176 976 176
WIRE 368 192 320 192
WIRE 416 192 368 192
WIRE 944 192 944 176
WIRE 112 208 96 208
WIRE 576 208 576 64
WIRE 576 208 544 208
WIRE 896 208 880 208
WIRE 336 224 320 224
WIRE 576 240 544 240
WIRE -160 272 -160 208
WIRE 112 272 112 208
WIRE 112 272 -160 272
WIRE 336 272 336 224
WIRE 336 272 112 272
WIRE 336 288 336 272
WIRE 576 288 576 240
WIRE 576 288 336 288
WIRE 896 288 896 208
WIRE 896 288 576 288
WIRE 944 288 944 256
WIRE 944 288 896 288
WIRE -160 304 -160 272
FLAG 368 192 vout1
FLAG -160 304 0
FLAG 128 176 X
FLAG 624 176 Qout
FLAG 976 176 rampout
SYMBOL CurrentSteeringRampGnerator3sym 224 176 R0
SYMATTR InstName X1
SYMBOL lphysteresistoscillatorsym5 0 176 R0
SYMATTR InstName X2
SYMBOL voltage -160 112 R0
WINDOW 123 0 0 Left 0
WINDOW 39 0 0 Left 0
SYMATTR InstName V1
SYMATTR Value .3
SYMBOL lowpowerdflipflop2sym 480 192 R0
SYMATTR InstName X3
SYMBOL CurrentSteeringRampGnerator3 784 176 R0
SYMATTR InstName X4
SYMBOL cap 928 192 R0
SYMATTR InstName C1
SYMATTR Value 1p
TEXT -72 352 Left 2 !.tran 0 20u 0 1e-11
